Circuit: * C:\users\kwarc\Moje Dokumenty\LTspiceXVII\joule-thief\v1\circuit.asc

Warning: Multiple definitions of model "2scr375p" Type: BJT
Warning: Multiple definitions of model "bc857b" Type: BJT
Warning: Multiple definitions of model "bc847c" Type: BJT
Warning: Multiple definitions of model "bc847b" Type: BJT
C1: Increased Cpar to 5.6e-016
.OP point found by inspection.

pin: AVG(-v(in)*i(v1))=0.0785785 FROM 0 TO 0.001
pout: AVG(v(out)*i(d2))=0.0613149 FROM 0 TO 0.001
eff: 100*pout/pin=78.0301


Date: Sat Feb 11 23:37:52 2023
Total elapsed time: 2.164 seconds.

tnom = 27
temp = 27
method = modified trap
totiter = 602925
traniter = 602925
tranpoints = 207252
accept = 143519
rejected = 63733
matrix size = 16
fillins = 18
solver = Normal
Matrix Compiler1: 1.73 KB object code size  1.3/0.8/[0.7]
Matrix Compiler2: 1.51 KB object code size  0.7/0.8/[0.7]

