Circuit: * C:\users\kwarc\Moje Dokumenty\LTspiceXVII\joule-thief\v1\circuit.asc

Warning: Multiple definitions of model "2scr375p" Type: BJT
Warning: Multiple definitions of model "bc857b" Type: BJT
Warning: Multiple definitions of model "bc847c" Type: BJT
Warning: Multiple definitions of model "bc847b" Type: BJT
C1: Increased Cpar to 5.6e-016
.OP point found by inspection.

pin: AVG(-v(in)*i(v1))=0.0597703 FROM 0 TO 0.001
pout: AVG(v(out)*i(d2))=0.0482378 FROM 0 TO 0.001
eff: 100*pout/pin=80.7054


Date: Sun Feb 12 17:08:08 2023
Total elapsed time: 5.196 seconds.

tnom = 27
temp = 27
method = modified trap
totiter = 1485204
traniter = 1485204
tranpoints = 514595
accept = 354598
rejected = 159997
matrix size = 16
fillins = 13
solver = Normal
Matrix Compiler1: 1.47 KB object code size  1.2/0.8/[0.7]
Matrix Compiler2: 1.42 KB object code size  0.7/0.7/[0.6]

